;; Exported from InfoWorks ICM 2021.1.1 encoding=UTF8
[TITLE]
Example User4

[OPTIONS]
ALLOW_PONDING NO
HEAD_TOLERANCE 0.005000
INERTIAL_DAMPING NONE
INFILTRATION HORTON
MAX_TRIALS 8
MIN_SLOPE 0.000000
MIN_SURFAREA 12.556000
NORMAL_FLOW_LIMITED SLOPE
FLOW_UNITS CFS
FORCE_MAIN_EQUATION H-W
FLOW_ROUTING DYNWAVE
LINK_OFFSETS ELEVATION
IGNORE_RAINFALL NO
IGNORE_SNOWMELT NO
IGNORE_GROUNDWATER NO
IGNORE_RDII NO
IGNORE_ROUTING NO
IGNORE_QUALITY NO
SKIP_STEADY_STATE NO
SYS_FLOW_TOL 5.000000
LAT_FLOW_TOL 5.000000
START_DATE 05/08/2002
START_TIME 00:00:00
END_DATE 05/09/2002
END_TIME 00:00:00
REPORT_START_DATE 05/08/2002
REPORT_START_TIME 00:00:00
SWEEP_START 01/01
SWEEP_END 12/31
DRY_DAYS 0.000000
REPORT_STEP 00:05:00
WET_STEP 00:15:00
DRY_STEP 00:15:00
ROUTING_STEP 5.000000
LENGTHENING_STEP 5.000000
VARIABLE_STEP 0.750000
MINIMUM_STEP 0.500000
[REPORT]
;;INPUT YES/NO
;;CONTINUITY YES/NO
;;FLOWSTATS YES/NO
;;CONTROLS YES/NO
;;AVERAGES YES/NO
;;SUBCATCHMENTS ALL/NONE/<list_of_subcatchment_names>
;;NODES ALL/NONE/<list_of_node_names>
;;LINKS ALL/NONE/<list_of_link_names>
INPUT YES
CONTINUITY YES
FLOWSTATS YES
CONTROLS NO
AVERAGES NO
SUBCATCHMENTS ALL
NODES ALL
LINKS ALL
[RAINGAGES]
;;Name Form Intvl SCF TIMESERIES Tseries
;;Name Form Intvl SCF FILE Fname Sta Units
GAGE1        INTENSITY 00:01        1.0          TIMESERIES RainSeries1 
[ADJUSTMENTS]
;;TEMPERATURE  t1 t2 t3 t4 t5 t6 t7 t8 t9 t10 t11 t12
;;EVAPORATION  e1 e2 e3 e4 e5 e6 e7 e8 e9 e10 e11 e12
;;RAINFALL   r1 r2 r3 r4 r5 r6 r7 r8 r9 r10 r11 r12
;;CONDUCTIVITY c1 c2 c3 c4 c5 c6 c7 c8 c9 c10 c11 c12 
CONDUCTIVITY 1.0          1.0          1.0          1.0          1.0          1.0          1.0          1.0          1.0          1.0          1.0          1.0         
EVAPORATION 0.0          0.0          0.0          0.0          0.0          0.0          0.0          0.0          0.0          0.0          0.0          0.0         
RAINFALL 1.0          1.0          1.0          1.0          1.0          1.0          1.0          1.0          1.0          1.0          1.0          1.0         
TEMPERATURE 32.0         32.0         32.0         32.0         32.0         32.0         32.0         32.0         32.0         32.0         32.0         32.0        
[SUBCATCHMENTS]
;;Name Rgage OutID Area %Imperv Width Slope Clength SnowPack
GMMC19CC0001 GAGE1        23811028     17.88        35.04        287.51       2.5          0.0                      
GMMC19CC0002 GAGE1        23708027     2.55         44.57        135.51       1.6          0.0                      
GMMC19CC0003 GAGE1        23708023     4.83         57.89        110.77       1.2          0.0                      
GMMC19CC0004 GAGE1        23707008     6.56         22.35        150.97       2.4          0.0                      
GMMC19CC0005 GAGE1        23707011     5.82         23.55        115.61       1.4          0.0                      
GMMC19CC0006 GAGE1        23707015     10.68        35.28        223.49       1.5          0.0                      
GMMC19CC0007 GAGE1        23702032     31.33        41.94        286.89       1.5          0.0                      
GMMC19CC0008 GAGE1        23707014     1.84         26.62        109.67       3.0          0.0                      
GMMC19CC0009 GAGE1        23702039     7.98         30.74        156.3        3.6          0.0                      
GMMC19CC0010 GAGE1        23707007     1.71         27.4         199.47       3.2          0.0                      
GMMC19CC0011 GAGE1        23707007     0.58         27.43        34.99        4.1          0.0                      
GMMC19CC0012 GAGE1        23707003     1.35         21.13        64.73        1.5          0.0                      
GMMC19CC0013 GAGE1        23707005     3.06         29.33        89.49        2.0          0.0                      
GMMC19CC0014 GAGE1        23702037     1.74         47.0         68.33        3.2          0.0                      
GMMC19CC0015 GAGE1        23702036     0.92         33.63        146.47       14.7         0.0                      
GMMC19CC0016 GAGE1        23701029     15.24        41.08        262.15       1.1          0.0                      
GMMC19CC0017 GAGE1        23701011     1.64         84.95        112.92       2.2          0.0                      
GMMC19CC0018 GAGE1        23701016     2.92         38.67        87.04        3.7          0.0                      
GMMC19CC0019 GAGE1        23701023     2.44         45.06        116.79       3.3          0.0                      
GMMC19CC0020 GAGE1        23701008     1.28         42.45        132.0        1.8          0.0                      
GMMC19CC0021 GAGE1        23701035     6.38         26.48        113.86       2.1          0.0                      
GMMC19CC0022 GAGE1        23701019     0.63         48.08        125.76       2.7          0.0                      
GMMC19CC0023 GAGE1        23701001     2.49         26.88        1146.75      1.0          0.0                      
GMMC19CC0024 GAGE1        23701034     8.73         25.47        197.92       3.0          0.0                      
GMMC19CC0025 GAGE1        20713008     8.82         25.54        185.33       4.4          0.0                      
GMMC19CC0026 GAGE1        23816037     4.09         24.05        265.33       1.0          0.0                      
GMMC19CC0027 GAGE1        23816006     7.8          24.64        157.35       4.6          0.0                      
GMMC19CC0028 GAGE1        23809053     4.37         37.51        94.76        4.5          0.0                      
GMMC19CC0029 GAGE1        23809015     6.92         23.24        132.06       5.2          0.0                      
GMMC19CC0030 GAGE1        23809019     1.36         27.35        55.35        1.0          0.0                      
GMMC19CC0031 GAGE1        23809014     12.2         40.95        183.31       3.6          0.0                      
GMMC19CC0032 GAGE1        23809004     1.37         42.91        132.65       1.2          0.0                      
GMMC19CC0033 GAGE1        23809005     1.17         55.64        79.56        3.1          0.0                      
GMMC19CC0034 GAGE1        23809049     3.11         22.98        109.51       3.2          0.0                      
GMMC19CC0035 GAGE1        23808016     3.21         26.58        93.28        1.7          0.0                      
GMMC19CC0036 GAGE1        23701017     2.52         53.05        85.37        0.6          0.0                      
GMMC19CC0037 GAGE1        23702015     11.69        77.24        164.36       3.0          0.0                      
GMMC19CC0038 GAGE1        23815017     9.9          50.49        150.53       3.7          0.0                      
GMMC19CC0039 GAGE1        23815016     3.33         54.03        87.47        2.7          0.0                      
GMMC19CC0040 GAGE1        23815015     2.65         37.71        205.42       0.9          0.0                      
GMMC19CC0041 GAGE1        23815005     2.81         33.67        115.95       2.1          0.0                      
GMMC19CC0042 GAGE1        23815004     1.08         29.02        107.0        0.7          0.0                      
GMMC19CC0043 GAGE1        23815003     2.17         34.17        126.03       0.8          0.0                      
GMMC19CC0044 GAGE1        23815002     2.67         39.97        170.39       3.6          0.0                      
GMMC19CC0045 GAGE1        23815014     2.15         38.64        255.56       0.9          0.0                      
GMMC19CC0046 GAGE1        23809028     15.46        36.12        179.68       1.8          0.0                      
GMMC19CC0047 GAGE1        23809027     3.91         79.94        165.71       3.2          0.0                      
GMMC19CC0048 GAGE1        23814006     11.47        36.8         248.24       0.9          0.0                      
GMMC19CC0049 GAGE1        23811029     11.05        50.73        193.65       3.2          0.0                      
GMMC19CC0050 GAGE1        23814009     4.89         65.32        153.12       1.7          0.0                      
GMMC19CC0051 GAGE1        23811028     1.65         60.59        92.82        5.1          0.0                      
GMMC19CC0052 GAGE1        23815025     2.0          58.52        98.72        2.0          0.0                      
GMMC19CC0053 GAGE1        23810026     3.65         44.59        123.06       4.9          0.0                      
GMMC19CC0054 GAGE1        23815030     1.13         56.17        122.37       2.1          0.0                      
GMMC19CC0055 GAGE1        23815032     9.14         43.05        158.29       4.0          0.0                      
GMMC19CC0056 GAGE1        23815024     1.9          83.69        83.07        0.8          0.0                      
GMMC19CC0057 GAGE1        23815023     0.93         81.77        94.85        0.9          0.0                      
GMMC19CC0058 GAGE1        23815021     3.13         38.84        103.0        1.1          0.0                      
GMMC19CC0059 GAGE1        23815009     1.55         44.44        70.64        2.4          0.0                      
GMMC19CC0060 GAGE1        23810012     1.21         33.02        100.37       0.9          0.0                      
GMMC19CC0061 GAGE1        23810011     2.04         31.23        176.58       0.9          0.0                      
GMMC19CC0062 GAGE1        23810019     6.12         31.34        131.58       5.0          0.0                      
GMMC19CC0063 GAGE1        23811004     14.25        56.32        275.27       2.0          0.0                      
GMMC19CC0064 GAGE1        23811003     2.73         48.28        128.89       3.8          0.0                      
GMMC19CC0065 GAGE1        23810016     4.05         37.17        182.9        2.0          0.0                      
GMMC19CC0066 GAGE1        23810014     1.5          21.55        204.59       1.0          0.0                      
GMMC19CC0067 GAGE1        23810010     9.57         36.77        174.3        3.1          0.0                      
GMMC19CC0068 GAGE1        23810009     5.39         70.89        236.72       0.6          0.0                      
GMMC19CC0069 GAGE1        23807013     8.83         22.13        200.33       1.0          0.0                      
GMMC19CC0070 GAGE1        23802012     6.37         22.33        158.81       3.2          0.0                      
GMMC19CC0071 GAGE1        23807017     1.82         26.07        189.01       2.8          0.0                      
GMMC19CC0072 GAGE1        23807018     2.82         21.0         73.44        3.3          0.0                      
GMMC19CC0073 GAGE1        23807020     2.83         22.09        263.03       6.0          0.0                      
GMMC19CC0074 GAGE1        23807031     3.81         21.04        75.66        1.0          0.0                      
GMMC19CC0075 GAGE1        23809026     0.81         60.96        86.84        3.2          0.0                      
GMMC19CC0076 GAGE1        23808025     3.78         34.13        390.45       3.1          0.0                      
GMMC19CC0077 GAGE1        23808024     1.95         27.71        146.75       1.1          0.0                      
GMMC19CC0078 GAGE1        23808022     14.52        37.33        161.98       2.7          0.0                      
GMMC19CC0079 GAGE1        23808005     10.75        33.8         145.57       2.6          0.0                      
GMMC19CC0080 GAGE1        23801007     3.76         36.94        250.23       4.3          0.0                      
GMMC19CC0081 GAGE1        23801009     7.57         34.79        157.21       3.6          0.0                      
GMMC19CC0082 GAGE1        23807028     4.49         27.71        144.23       1.0          0.0                      
GMMC19CC0083 GAGE1        23807004     3.8          25.09        104.05       2.5          0.0                      
GMMC19CC0084 GAGE1        23808032     1.59         32.41        59.58        0.5          0.0                      
GMMC19CC0085 GAGE1        23801028     5.48         23.01        744.39       2.3          0.0                      
GMMC19CC0086 GAGE1        23808019     4.92         29.56        159.62       1.6          0.0                      
GMMC19CC0087 GAGE1        23801020     6.24         41.81        142.44       2.1          0.0                      
GMMC19CC0088 GAGE1        23801025     3.62         21.04        144.82       5.0          0.0                      
GMMC19CC0089 GAGE1        23801014     3.68         29.23        92.44        3.1          0.0                      
GMMC19CC0090 GAGE1        23801026     0.13         21.0         51.24        0.5          0.0                      
GMMC19CC0091 GAGE1        23801011     2.94         33.53        113.41       3.4          0.0                      
GMMC19CC0092 GAGE1        23801013     0.9          21.36        72.18        0.6          0.0                      
GMMC19CC0093 GAGE1        23801032     4.33         38.49        232.3        0.6          0.0                      
GMMC19CC0094 GAGE1        23801001     11.29        50.19        201.15       1.0          0.0                      
GMMC19CC0095 GAGE1        23916027     4.71         34.51        119.58       4.2          0.0                      
GMMC19CC0096 GAGE1        23801003     1.26         50.12        135.1        0.6          0.0                      
GMMC19CC0097 GAGE1        23916026     1.25         50.28        91.74        0.6          0.0                      
GMMC19CC0098 GAGE1        23916014     6.33         33.08        114.72       3.9          0.0                      
GMMC19CC0099 GAGE1        23916017     3.77         22.11        112.87       3.2          0.0                      
GMMC19CC0100 GAGE1        23916015     1.57         45.98        88.83        1.8          0.0                      
GMMC19CC0101 GAGE1        23916003     1.17         30.12        47.88        3.0          0.0                      
GMMC19CC0102 GAGE1        23916007     10.92        43.4         317.3        4.0          0.0                      
GMMC19CC0103 GAGE1        20712009     1.43         50.15        119.23       6.0          0.0                      
GMMC19CC0104 GAGE1        20712010     1.32         45.47        54.15        4.0          0.0                      
GMMC19CC0105 GAGE1        23808013     0.73         29.93        118.87       1.0          0.0                      
GMMC19CC0106 GAGE1        23808030     1.16         35.32        55.62        1.0          0.0                      
GMMC19CC0107 GAGE1        20712011     1.24         31.99        127.24       1.7          0.0                      
GMMC19CC0108 GAGE1        23809003     1.43         45.96        160.57       1.3          0.0                      
GMMC19CC0109 GAGE1        23702027     5.31         49.54        138.37       5.7          0.0                      
GMMC19CC0110 GAGE1        23703003     1.6          33.84        101.21       5.0          0.0                      
GMMC19CC0111 GAGE1        20704016     1.83         38.54        82.26        2.9          0.0                      
GMMC19CC0112 GAGE1        23916025     3.62         32.47        100.55       4.5          0.0                      
[SUBAREAS]
;;Subcat Nimp Nperv Simp Sperv %Zero RouteTo PctRouted
GMMC19CC0001 0.015        0.25         0.1          0.2          25.0         OUTLET       100.0       
GMMC19CC0002 0.015        0.25         0.1          0.2          25.0         OUTLET       100.0       
GMMC19CC0003 0.015        0.25         0.1          0.2          25.0         OUTLET       100.0       
GMMC19CC0004 0.015        0.25         0.1          0.2          25.0         OUTLET       100.0       
GMMC19CC0005 0.015        0.25         0.1          0.2          25.0         OUTLET       100.0       
GMMC19CC0006 0.015        0.25         0.1          0.2          25.0         OUTLET       100.0       
GMMC19CC0007 0.015        0.25         0.1          0.2          25.0         OUTLET       100.0       
GMMC19CC0008 0.015        0.25         0.1          0.2          25.0         OUTLET       100.0       
GMMC19CC0009 0.015        0.25         0.1          0.2          25.0         OUTLET       100.0       
GMMC19CC0010 0.015        0.25         0.1          0.2          25.0         OUTLET       100.0       
GMMC19CC0011 0.015        0.25         0.1          0.2          25.0         OUTLET       100.0       
GMMC19CC0012 0.015        0.25         0.1          0.2          25.0         OUTLET       100.0       
GMMC19CC0013 0.015        0.25         0.1          0.2          25.0         OUTLET       100.0       
GMMC19CC0014 0.015        0.25         0.1          0.2          25.0         OUTLET       100.0       
GMMC19CC0015 0.015        0.25         0.1          0.2          25.0         OUTLET       100.0       
GMMC19CC0016 0.015        0.25         0.1          0.2          25.0         OUTLET       100.0       
GMMC19CC0017 0.015        0.25         0.1          0.2          25.0         OUTLET       100.0       
GMMC19CC0018 0.015        0.25         0.1          0.2          25.0         OUTLET       100.0       
GMMC19CC0019 0.015        0.25         0.1          0.2          25.0         OUTLET       100.0       
GMMC19CC0020 0.015        0.25         0.1          0.2          25.0         OUTLET       100.0       
GMMC19CC0021 0.015        0.25         0.1          0.2          25.0         OUTLET       100.0       
GMMC19CC0022 0.015        0.25         0.1          0.2          25.0         OUTLET       100.0       
GMMC19CC0023 0.015        0.25         0.1          0.2          25.0         OUTLET       100.0       
GMMC19CC0024 0.015        0.25         0.1          0.2          25.0         OUTLET       100.0       
GMMC19CC0025 0.015        0.25         0.1          0.2          25.0         OUTLET       100.0       
GMMC19CC0026 0.015        0.25         0.1          0.2          25.0         OUTLET       100.0       
GMMC19CC0027 0.015        0.25         0.1          0.2          25.0         OUTLET       100.0       
GMMC19CC0028 0.015        0.25         0.1          0.2          25.0         OUTLET       100.0       
GMMC19CC0029 0.015        0.25         0.1          0.2          25.0         OUTLET       100.0       
GMMC19CC0030 0.015        0.25         0.1          0.2          25.0         OUTLET       100.0       
GMMC19CC0031 0.015        0.25         0.1          0.2          25.0         OUTLET       100.0       
GMMC19CC0032 0.015        0.25         0.1          0.2          25.0         OUTLET       100.0       
GMMC19CC0033 0.015        0.25         0.1          0.2          25.0         OUTLET       100.0       
GMMC19CC0034 0.015        0.25         0.1          0.2          25.0         OUTLET       100.0       
GMMC19CC0035 0.015        0.25         0.1          0.2          25.0         OUTLET       100.0       
GMMC19CC0036 0.015        0.25         0.1          0.2          25.0         OUTLET       100.0       
GMMC19CC0037 0.015        0.25         0.1          0.2          25.0         OUTLET       100.0       
GMMC19CC0038 0.015        0.25         0.1          0.2          25.0         OUTLET       100.0       
GMMC19CC0039 0.015        0.25         0.1          0.2          25.0         OUTLET       100.0       
GMMC19CC0040 0.015        0.25         0.1          0.2          25.0         OUTLET       100.0       
GMMC19CC0041 0.015        0.25         0.1          0.2          25.0         OUTLET       100.0       
GMMC19CC0042 0.015        0.25         0.1          0.2          25.0         OUTLET       100.0       
GMMC19CC0043 0.015        0.25         0.1          0.2          25.0         OUTLET       100.0       
GMMC19CC0044 0.015        0.25         0.1          0.2          25.0         OUTLET       100.0       
GMMC19CC0045 0.015        0.25         0.1          0.2          25.0         OUTLET       100.0       
GMMC19CC0046 0.015        0.25         0.1          0.2          25.0         OUTLET       100.0       
GMMC19CC0047 0.015        0.25         0.1          0.2          25.0         OUTLET       100.0       
GMMC19CC0048 0.015        0.25         0.1          0.2          25.0         OUTLET       100.0       
GMMC19CC0049 0.015        0.25         0.1          0.2          25.0         OUTLET       100.0       
GMMC19CC0050 0.015        0.25         0.1          0.2          25.0         OUTLET       100.0       
GMMC19CC0051 0.015        0.25         0.1          0.2          25.0         OUTLET       100.0       
GMMC19CC0052 0.015        0.25         0.1          0.2          25.0         OUTLET       100.0       
GMMC19CC0053 0.015        0.25         0.1          0.2          25.0         OUTLET       100.0       
GMMC19CC0054 0.015        0.25         0.1          0.2          25.0         OUTLET       100.0       
GMMC19CC0055 0.015        0.25         0.1          0.2          25.0         OUTLET       100.0       
GMMC19CC0056 0.015        0.25         0.1          0.2          25.0         OUTLET       100.0       
GMMC19CC0057 0.015        0.25         0.1          0.2          25.0         OUTLET       100.0       
GMMC19CC0058 0.015        0.25         0.1          0.2          25.0         OUTLET       100.0       
GMMC19CC0059 0.015        0.25         0.1          0.2          25.0         OUTLET       100.0       
GMMC19CC0060 0.015        0.25         0.1          0.2          25.0         OUTLET       100.0       
GMMC19CC0061 0.015        0.25         0.1          0.2          25.0         OUTLET       100.0       
GMMC19CC0062 0.015        0.25         0.1          0.2          25.0         OUTLET       100.0       
GMMC19CC0063 0.015        0.25         0.1          0.2          25.0         OUTLET       100.0       
GMMC19CC0064 0.015        0.25         0.1          0.2          25.0         OUTLET       100.0       
GMMC19CC0065 0.015        0.25         0.1          0.2          25.0         OUTLET       100.0       
GMMC19CC0066 0.015        0.25         0.1          0.2          25.0         OUTLET       100.0       
GMMC19CC0067 0.015        0.25         0.1          0.2          25.0         OUTLET       100.0       
GMMC19CC0068 0.015        0.25         0.1          0.2          25.0         OUTLET       100.0       
GMMC19CC0069 0.015        0.25         0.1          0.2          25.0         OUTLET       100.0       
GMMC19CC0070 0.015        0.25         0.1          0.2          25.0         OUTLET       100.0       
GMMC19CC0071 0.015        0.25         0.1          0.2          25.0         OUTLET       100.0       
GMMC19CC0072 0.015        0.25         0.1          0.2          25.0         OUTLET       100.0       
GMMC19CC0073 0.015        0.25         0.1          0.2          25.0         OUTLET       100.0       
GMMC19CC0074 0.015        0.25         0.1          0.2          25.0         OUTLET       100.0       
GMMC19CC0075 0.015        0.25         0.1          0.2          25.0         OUTLET       100.0       
GMMC19CC0076 0.015        0.25         0.1          0.2          25.0         OUTLET       100.0       
GMMC19CC0077 0.015        0.25         0.1          0.2          25.0         OUTLET       100.0       
GMMC19CC0078 0.015        0.25         0.1          0.2          25.0         OUTLET       100.0       
GMMC19CC0079 0.015        0.25         0.1          0.2          25.0         OUTLET       100.0       
GMMC19CC0080 0.015        0.25         0.1          0.2          25.0         OUTLET       100.0       
GMMC19CC0081 0.015        0.25         0.1          0.2          25.0         OUTLET       100.0       
GMMC19CC0082 0.015        0.25         0.1          0.2          25.0         OUTLET       100.0       
GMMC19CC0083 0.015        0.25         0.1          0.2          25.0         OUTLET       100.0       
GMMC19CC0084 0.015        0.25         0.1          0.2          25.0         OUTLET       100.0       
GMMC19CC0085 0.015        0.25         0.1          0.2          25.0         OUTLET       100.0       
GMMC19CC0086 0.015        0.25         0.1          0.2          25.0         OUTLET       100.0       
GMMC19CC0087 0.015        0.25         0.1          0.2          25.0         OUTLET       100.0       
GMMC19CC0088 0.015        0.25         0.1          0.2          25.0         OUTLET       100.0       
GMMC19CC0089 0.015        0.25         0.1          0.2          25.0         OUTLET       100.0       
GMMC19CC0090 0.015        0.25         0.1          0.2          25.0         OUTLET       100.0       
GMMC19CC0091 0.015        0.25         0.1          0.2          25.0         OUTLET       100.0       
GMMC19CC0092 0.015        0.25         0.1          0.2          25.0         OUTLET       100.0       
GMMC19CC0093 0.015        0.25         0.1          0.2          25.0         OUTLET       100.0       
GMMC19CC0094 0.015        0.25         0.1          0.2          25.0         OUTLET       100.0       
GMMC19CC0095 0.015        0.25         0.1          0.2          25.0         OUTLET       100.0       
GMMC19CC0096 0.015        0.25         0.1          0.2          25.0         OUTLET       100.0       
GMMC19CC0097 0.015        0.25         0.1          0.2          25.0         OUTLET       100.0       
GMMC19CC0098 0.015        0.25         0.1          0.2          25.0         OUTLET       100.0       
GMMC19CC0099 0.015        0.25         0.1          0.2          25.0         OUTLET       100.0       
GMMC19CC0100 0.015        0.25         0.1          0.2          25.0         OUTLET       100.0       
GMMC19CC0101 0.015        0.25         0.1          0.2          25.0         OUTLET       100.0       
GMMC19CC0102 0.015        0.25         0.1          0.2          25.0         OUTLET       100.0       
GMMC19CC0103 0.015        0.25         0.1          0.2          25.0         OUTLET       100.0       
GMMC19CC0104 0.015        0.25         0.1          0.2          25.0         OUTLET       100.0       
GMMC19CC0105 0.015        0.25         0.1          0.2          25.0         OUTLET       100.0       
GMMC19CC0106 0.015        0.25         0.1          0.2          25.0         OUTLET       100.0       
GMMC19CC0107 0.015        0.25         0.1          0.2          25.0         OUTLET       100.0       
GMMC19CC0108 0.015        0.25         0.1          0.2          25.0         OUTLET       100.0       
GMMC19CC0109 0.015        0.25         0.1          0.2          25.0         OUTLET       100.0       
GMMC19CC0110 0.015        0.25         0.1          0.2          25.0         OUTLET       100.0       
GMMC19CC0111 0.015        0.25         0.1          0.2          25.0         OUTLET       100.0       
GMMC19CC0112 0.015        0.25         0.1          0.2          25.0         OUTLET       100.0       
[INFILTRATION]
;;Subcat MaxRate MinRate Decay DryTime MaxInf
;;Subcat Psi Ksat IMD
;;Subcat CurveNo Ksat DryTime
GMMC19CC0001 6.0          0.1311       2.016        0.04134      0.0         
GMMC19CC0002 6.0          0.2496       2.016        0.04134      0.0         
GMMC19CC0003 6.0          0.1461       2.016        0.04134      0.0         
GMMC19CC0004 6.0          0.1903       2.016        0.04134      0.0         
GMMC19CC0005 6.0          0.1552       2.016        0.04134      0.0         
GMMC19CC0006 6.0          0.1          2.016        0.04134      0.0         
GMMC19CC0007 6.0          0.1124       2.016        0.04134      0.0         
GMMC19CC0008 6.0          0.1763       2.016        0.04134      0.0         
GMMC19CC0009 6.0          0.1585       2.016        0.04134      0.0         
GMMC19CC0010 6.0          0.1          2.016        0.04134      0.0         
GMMC19CC0011 6.0          0.2169       2.016        0.04134      0.0         
GMMC19CC0012 6.0          0.25         2.016        0.04134      0.0         
GMMC19CC0013 6.0          0.25         2.016        0.04134      0.0         
GMMC19CC0014 6.0          0.25         2.016        0.04134      0.0         
GMMC19CC0015 6.0          0.25         2.016        0.04134      0.0         
GMMC19CC0016 6.0          0.114        2.016        0.04134      0.0         
GMMC19CC0017 6.0          0.1          2.016        0.04134      0.0         
GMMC19CC0018 6.0          0.1          2.016        0.04134      0.0         
GMMC19CC0019 6.0          0.1          2.016        0.04134      0.0         
GMMC19CC0020 6.0          0.1023       2.016        0.04134      0.0         
GMMC19CC0021 6.0          0.1339       2.016        0.04134      0.0         
GMMC19CC0022 6.0          0.1406       2.016        0.04134      0.0         
GMMC19CC0023 6.0          0.1662       2.016        0.04134      0.0         
GMMC19CC0024 6.0          0.189        2.016        0.04134      0.0         
GMMC19CC0025 6.0          0.2139       2.016        0.04134      0.0         
GMMC19CC0026 6.0          0.2096       2.016        0.04134      0.0         
GMMC19CC0027 6.0          0.2222       2.016        0.04134      0.0         
GMMC19CC0028 6.0          0.2292       2.016        0.04134      0.0         
GMMC19CC0029 6.0          0.2168       2.016        0.04134      0.0         
GMMC19CC0030 6.0          0.25         2.016        0.04134      0.0         
GMMC19CC0031 6.0          0.2062       2.016        0.04134      0.0         
GMMC19CC0032 6.0          0.246        2.016        0.04134      0.0         
GMMC19CC0033 6.0          0.25         2.016        0.04134      0.0         
GMMC19CC0034 6.0          0.25         2.016        0.04134      0.0         
GMMC19CC0035 6.0          0.25         2.016        0.04134      0.0         