[TITLE]
;;Project Title/Notes
Lid Example with Bio Cell with OpenAI changes

[OPTIONS]
;;Option             Value
FLOW_UNITS           CFS
INFILTRATION         MODIFIED_GREEN_AMPT
FLOW_ROUTING         DYNWAVE
LINK_OFFSETS         DEPTH
MIN_SLOPE            0
ALLOW_PONDING        NO
SKIP_STEADY_STATE    NO

START_DATE           09/13/2014
START_TIME           00:00:00
REPORT_START_DATE    09/13/2014
REPORT_START_TIME    00:00:00
END_DATE             09/15/2014
END_TIME             00:00:00
SWEEP_START          01/01
SWEEP_END            12/31
DRY_DAYS             0
REPORT_STEP          01:00:00
WET_STEP             00:30:00
DRY_STEP             01:00:00
ROUTING_STEP         0:00:30 
RULE_STEP            00:00:00

INERTIAL_DAMPING     PARTIAL
NORMAL_FLOW_LIMITED  BOTH
FORCE_MAIN_EQUATION  H-W
VARIABLE_STEP        0.75
LENGTHENING_STEP     0
MIN_SURFAREA         12.557
MAX_TRIALS           8
HEAD_TOLERANCE       0.005
SYS_FLOW_TOL         5
LAT_FLOW_TOL         5
MINIMUM_STEP         0.5
THREADS              1

[EVAPORATION]
;;Data Source    Parameters
;;-------------- ----------------
CONSTANT         .50
DRY_ONLY         NO

[RAINGAGES]
;;Name           Format    Interval SCF      Source    
;;-------------- --------- ------ ------ ----------
rainStorm        INTENSITY 0:15     1.0      TIMESERIES Rainfall        

[SUBCATCHMENTS]
;;Name           Rain Gage        Outlet           Area     %Imperv  Width    %Slope   CurbLen  SnowPack        
;;-------------- ---------------- ---------------- -------- -------- -------- -------- -------- ----------------
Scen1_wBioCell   rainStorm        OutfallTwo       5        50       100      1        0                        
Scen1_woBioCell  rainStorm        OutfallTwo       5        50       100      1        0                        
Scen2_wBioCell   rainStorm        OutfallTwo       5        50       100      1        0                        
Scen2_woBioCell  rainStorm        OutfallTwo       5        50       100      1        0                        

[SUBAREAS]
;;Subcatchment   N-Imperv   N-Perv     S-Imperv   S-Perv     PctZero    RouteTo    PctRouted 
;;-------------- ---------- ---------- ---------- ---------- ---------- ---------- ----------
Scen1_wBioCell   0.02       0.1        0.05       0.05       25         OUTLET    
Scen1_woBioCell  0.02       0.1        0.05       0.05       25         OUTLET    
Scen2_wBioCell   0.02       0.1        0.05       0.05       25         OUTLET    
Scen2_woBioCell  0.02       0.1        0.05       0.05       25         OUTLET    

[INFILTRATION]
;;Subcatchment   Param1     Param2     Param3     Param4     Param5    
;;-------------- ---------- ---------- ---------- ---------- ----------
Scen1_wBioCell   4.3        0.039      0.6        7          0         
Scen1_woBioCell  4.3        0.039      0.6        7          0         
Scen2_wBioCell   4.3        0.039      0.6        7          0         
Scen2_woBioCell  4.3        0.039      0.6        7          0         

[LID_CONTROLS]
;;Name           Type/Layer Parameters
;;-------------- ---------- ----------
BC               BC
BC               SURFACE    12         .25        0.1        1.0        5         
BC               SOIL       12         0.5        0.2        0.1        1          10.0       5         
BC               STORAGE    12         0.50       1          0          NO        
BC               DRAIN      0          0.5        6          6          0          0                    

[LID_USAGE]
;;Subcatchment   LID Process      Number  Area       Width      InitSat    FromImp    ToPerv     RptFile                  DrainTo          FromPerv  
;;-------------- ---------------- ------- ---------- ---------- ---------- ---------- ---------- ------------------------ ---------------- ----------
Scen1_wBioCell   BC               10      21780.00   10         0          25         1          "C:\Users\dickinre\Desktop\lid_output.txt" *                0               
Scen2_wBioCell   BC               50      50         10         0          25         1          *                        *                0               

[OUTFALLS]
;;Name           Elevation  Type       Stage Data       Gated    Route To        
;;-------------- ---------- ---------- ---------------- -------- ----------------
OutfallTwo       0          FREE                        NO                       

[TIMESERIES]
;;Name           Date       Time       Value     
;;-------------- ---------- ---------- ----------
Rainfall                    0:00       0.037     
Rainfall                    0:15       0.111     
Rainfall                    0:30       0.185     
Rainfall                    0:45       0.259     
Rainfall                    1:00       0.333     
Rainfall                    1:15       0.407     
Rainfall                    1:30       0.481     
Rainfall                    1:45       0.556     
Rainfall                    2:00       0.630     
Rainfall                    2:15       0.644     
Rainfall                    2:30       0.600     
Rainfall                    2:45       0.556     
Rainfall                    3:00       0.511     
Rainfall                    3:15       0.467     
Rainfall                    3:30       0.422     
Rainfall                    3:45       0.378     
Rainfall                    4:00       0.333     
Rainfall                    4:15       0.289     
Rainfall                    4:30       0.244     
Rainfall                    4:45       0.200     
Rainfall                    5:00       0.156     
Rainfall                    5:15       0.111     
Rainfall                    5:30       0.067     
Rainfall                    5:45       0.022     
Rainfall                    6:00       0         

[REPORT]
;;Reporting Options
INPUT      YES
CONTROLS   YES
SUBCATCHMENTS ALL
NODES ALL
LINKS ALL

[TAGS]

[MAP]
DIMENSIONS -280.543 4600.941 7925.070 7571.384
Units      None

[COORDINATES]
;;Node           X-Coord            Y-Coord           
;;-------------- ------------------ ------------------
OutfallTwo       3942.500           4735.961          

[VERTICES]
;;Link           X-Coord            Y-Coord           
;;-------------- ------------------ ------------------

[Polygons]
;;Subcatchment   X-Coord            Y-Coord           
;;-------------- ------------------ ------------------
Scen1_wBioCell   1469.003           6584.043          
Scen1_wBioCell   1270.850           6092.985          
Scen1_wBioCell   1609.665           5472.282          
Scen1_wBioCell   1267.894           5636.838          
Scen1_wBioCell   851.932            5636.838          
Scen1_wBioCell   435.970            5532.848          
Scen1_wBioCell   152.659            5466.186          
Scen1_wBioCell   110.245            6053.483          
Scen1_wBioCell   92.439             6448.495          
Scen1_wBioCell   184.947            6623.909          
Scen1_wBioCell   438.901            6643.402          
Scen1_wBioCell   621.468            6648.935          
Scen1_wBioCell   920.214            6659.999          
Scen1_wBioCell   1163.637           6637.870          
Scen1_wBioCell   1268.751           6577.014          
Scen1_wBioCell   1469.003           6584.043          
Scen1_woBioCell  5870.094           7360.408          
Scen1_woBioCell  5671.941           6869.350          
Scen1_woBioCell  6010.756           6248.647          
Scen1_woBioCell  5668.985           6413.203          
Scen1_woBioCell  5253.023           6413.203          
Scen1_woBioCell  4837.061           6309.213          
Scen1_woBioCell  4553.750           6242.551          
Scen1_woBioCell  4511.336           6829.848          
Scen1_woBioCell  4493.530           7224.860          
Scen1_woBioCell  4586.038           7400.274          
Scen1_woBioCell  4839.992           7419.767          
Scen1_woBioCell  5022.559           7425.300          
Scen1_woBioCell  5321.305           7436.364          
Scen1_woBioCell  5564.728           7414.235          
Scen1_woBioCell  5669.842           7353.379          
Scen1_woBioCell  5870.094           7360.408          
Scen2_wBioCell   2004.765           6082.725          
Scen2_wBioCell   1962.351           6670.022          
Scen2_wBioCell   1944.545           7065.034          
Scen2_wBioCell   2037.053           7240.448          
Scen2_wBioCell   2291.007           7259.941          
Scen2_wBioCell   2473.574           7265.474          
Scen2_wBioCell   2772.320           7276.538          
Scen2_wBioCell   3015.743           7254.409          
Scen2_wBioCell   3120.857           7193.553          
Scen2_wBioCell   3321.109           7200.582          
Scen2_woBioCell  7411.425           6097.379          
Scen2_woBioCell  7213.272           5606.321          
Scen2_woBioCell  7552.087           4985.618          
Scen2_woBioCell  7210.316           5150.174          
Scen2_woBioCell  6794.354           5150.174          
Scen2_woBioCell  6378.392           5046.184          
Scen2_woBioCell  6095.081           4979.522          
Scen2_woBioCell  6052.667           5566.819          
Scen2_woBioCell  6034.861           5961.831          
Scen2_woBioCell  6127.369           6137.245          
Scen2_woBioCell  6381.323           6156.738          
Scen2_woBioCell  6563.890           6162.271          
Scen2_woBioCell  6862.636           6173.335          
Scen2_woBioCell  7106.059           6151.206          
Scen2_woBioCell  7211.173           6090.350          
Scen2_woBioCell  7411.425           6097.379          

[SYMBOLS]
;;Gage           X-Coord            Y-Coord           
;;-------------- ------------------ ------------------
rainStorm        3783.694           6913.142          

