[TITLE]
;;Project Title/Notes
Scenario Run :  SCSDIMUH

[OPTIONS]
;;Option             Value
FLOW_UNITS           CFS
INFILTRATION         CURVE_NUMBER
FLOW_ROUTING         DYNWAVE
LINK_OFFSETS         DEPTH
MIN_SLOPE            0
ALLOW_PONDING        NO
SKIP_STEADY_STATE    NO

IGNORE_SNOWMELT      YES
IGNORE_GROUNDWATER   YES
IGNORE_QUALITY       YES
START_DATE           07/15/1977
START_TIME           00:00:00
REPORT_START_DATE    07/15/1977
REPORT_START_TIME    00:00:00
END_DATE             07/17/1977
END_TIME             06:00:00
SWEEP_START          01/01
SWEEP_END            01/01
DRY_DAYS             7.000000
REPORT_STEP          00:01:00
WET_STEP             00:05:00
DRY_STEP             00:05:00
ROUTING_STEP         0:00:10 

INERTIAL_DAMPING     NONE
NORMAL_FLOW_LIMITED  BOTH
FORCE_MAIN_EQUATION  H-W
VARIABLE_STEP        0.75
LENGTHENING_STEP     0
MIN_SURFAREA         12.566000
MAX_TRIALS           4
HEAD_TOLERANCE       0.005000
SYS_FLOW_TOL         5
LAT_FLOW_TOL         5
MINIMUM_STEP         0
THREADS              1

[EVAPORATION]
;;Data Source    Parameters
;;-------------- ----------------
CONSTANT         0.000000
RECOVERY         EVAPORATION
DRY_ONLY         NO

[RAINGAGES]
;;Name           Format    Interval SCF      Source    
;;-------------- --------- ------ ------ ----------
GAGE500YEAR      INTENSITY 1.000000 1.000000 TIMESERIES 500YEAR         

[SUBCATCHMENTS]
;;Name           Rain Gage        Outlet           Area     %Imperv  Width    %Slope   CurbLen  SnowPack        
;;-------------- ---------------- ---------------- -------- -------- -------- -------- -------- ----------------
45               GAGE500YEAR      C                1.067258 0.000000 500.000000 1.000000 0.000000                 
47.5             GAGE500YEAR      B                0.503576 0.000000 500.000000 1.000000 0.000000                 
50               GAGE500YEAR      B                0.688776 0.000000 500.000000 1.000000 0.000000                 
52.5             GAGE500YEAR      B                1.405838 0.000000 500.000000 1.000000 0.000000                 
55               GAGE500YEAR      C                0.579845 0.000000 500.000000 1.000000 0.000000                 
57.5             GAGE500YEAR      C                0.794172 0.000000 500.000000 1.000000 0.000000                 
60               GAGE500YEAR      C                1.330074 0.000000 500.000000 1.000000 0.000000                 
62.5             GAGE500YEAR      B                1.201949 0.000000 500.000000 1.000000 0.000000                 
65               GAGE500YEAR      B                1.184439 0.000000 500.000000 1.000000 0.000000                 
67.6             GAGE500YEAR      B                0.386058 0.000000 500.000000 1.000000 0.000000                 
70               GAGE500YEAR      B                0.307937 0.000000 500.000000 1.000000 0.000000                 
72.5             GAGE500YEAR      B                0.964051 0.000000 500.000000 1.000000 0.000000                 
75               GAGE500YEAR      B                1.286597 0.000000 500.000000 1.000000 0.000000                 
77.5             GAGE500YEAR      B                3.215955 0.000000 500.000000 1.000000 0.000000                 
80               GAGE500YEAR      B                2.295827 0.000000 500.000000 1.000000 0.000000                 
82.5             GAGE500YEAR      B                1.895046 0.000000 500.000000 1.000000 0.000000                 
85               GAGE500YEAR      B                1.083781 0.000000 500.000000 1.000000 0.000000                 
87.5             GAGE500YEAR      B                2.426068 0.000000 500.000000 1.000000 0.000000                 
90               GAGE500YEAR      B                7.273174 0.000000 500.000000 1.000000 0.000000                 
92.5             GAGE500YEAR      B                6.542052 0.000000 500.000000 1.000000 0.000000                 
95               GAGE500YEAR      G                8.131895 0.000000 200.000000 1.000000 0.000000                 
96.5             GAGE500YEAR      C                3.617405 0.000000 600.000000 1.000000 0.000000                 
98               GAGE500YEAR      A                11.676852 0.000000 600.000000 1.000000 0.000000                 

[SUBAREAS]
;;Subcatchment   N-Imperv   N-Perv     S-Imperv   S-Perv     PctZero    RouteTo    PctRouted 
;;-------------- ---------- ---------- ---------- ---------- ---------- ---------- ----------
45               0.015000   0.410000   0.000000   0.000000   25.000000  OUTLET    
47.5             0.015000   0.410000   0.000000   0.000000   25.000000  OUTLET    
50               0.015000   0.410000   0.000000   0.000000   25.000000  OUTLET    
52.5             0.015000   0.410000   0.000000   0.000000   25.000000  OUTLET    
55               0.015000   0.410000   0.000000   0.000000   25.000000  OUTLET    
57.5             0.015000   0.410000   0.000000   0.000000   25.000000  OUTLET    
60               0.015000   0.410000   0.000000   0.000000   25.000000  OUTLET    
62.5             0.015000   0.410000   0.000000   0.000000   25.000000  OUTLET    
65               0.015000   0.410000   0.000000   0.000000   25.000000  OUTLET    
67.6             0.015000   0.410000   0.000000   0.000000   25.000000  OUTLET    
70               0.015000   0.410000   0.000000   0.000000   25.000000  OUTLET    
72.5             0.015000   0.410000   0.000000   0.000000   25.000000  OUTLET    
75               0.015000   0.410000   0.000000   0.000000   25.000000  OUTLET    
77.5             0.015000   0.410000   0.000000   0.000000   25.000000  OUTLET    
80               0.015000   0.410000   0.000000   0.000000   25.000000  OUTLET    
82.5             0.015000   0.410000   0.000000   0.000000   25.000000  OUTLET    
85               0.015000   0.410000   0.000000   0.000000   25.000000  OUTLET    
87.5             0.015000   0.410000   0.000000   0.000000   25.000000  OUTLET    
90               0.015000   0.410000   0.000000   0.000000   25.000000  OUTLET    
92.5             0.015000   0.410000   0.000000   0.000000   25.000000  OUTLET    
95               0.015000   0.410000   0.000000   0.000000   25.000000  OUTLET    
96.5             0.015000   0.410000   0.000000   0.000000   25.000000  OUTLET    
98               0.015000   0.410000   0.000000   0.000000   25.000000  OUTLET    

[INFILTRATION]
;;Subcatchment   CurveNum              DryTime   
;;-------------- ---------- ---------- ----------
45               45.000000  1.000000   1.000000  
47.5             47.500000  1.000000   1.000000  
50               50.000000  1.000000   1.000000  
52.5             52.500000  1.000000   1.000000  
55               55.000000  1.000000   1.000000  
57.5             57.500000  1.000000   1.000000  
60               60.000000  1.000000   1.000000  
62.5             62.500000  1.000000   1.000000  
65               65.000000  1.000000   1.000000  
67.6             67.600000  1.000000   1.000000  
70               70.000000  1.000000   1.000000  
72.5             72.500000  1.000000   1.000000  
75               75.000000  1.000000   1.000000  
77.5             77.500000  1.000000   1.000000  
80               80.000000  1.000000   1.000000  
82.5             82.500000  1.000000   1.000000  
85               85.000000  1.000000   1.000000  
87.5             87.500000  1.000000   1.000000  
90               90.000000  1.000000   1.000000  
92.5             92.500000  1.000000   1.000000  
95               95.000000  1.000000   1.000000  
96.5             96.500000  1.000000   1.000000  
98               98.000000  1.000000   1.000000  

[LID_CONTROLS]
;;Name           Type/Layer Parameters
;;-------------- ---------- ----------
LID-102          BC
LID-102          SURFACE    1.000000   0.100000   0.100000   1.000000   5.000000  
LID-102          SOIL       1.000000   0.500000   0.200000   0.100000   0.500000   10.000000  3.500000  
LID-102          STORAGE    1.000000   0.750000   0.500000   0.000000  
LID-102          DRAIN      0.000000   0.500000   6.000000   6.000000  

BR               BC
BR               SURFACE    1.000000   0.100000   0.100000   1.000000   5.000000  
BR               SOIL       1.000000   0.500000   0.200000   0.100000   0.500000   10.000000  3.500000  
BR               STORAGE    1.000000   0.750000   0.500000   0.000000  
BR               DRAIN      0.000000   0.500000   6.000000   6.000000  

RG               RG
RG               SURFACE    5.000000   0.100000   0.100000   1.000000   5.000000  
RG               SOIL       1.000000   0.500000   0.200000   0.100000   0.500000   10.000000  3.500000  
RG               STORAGE    1.000000   0.750000   0.500000   0.000000  

[LID_USAGE]
;;Subcatchment   LID Process      Number  Area       Width      InitSat    FromImp    ToPerv     RptFile                  DrainTo         
;;-------------- ---------------- ------- ---------- ---------- ---------- ---------- ---------- ------------------------ ----------------

[AQUIFERS]
;;Name           Por    WP     FC     Ksat   Kslope Tslope ETu    ETs    Seep   Ebot   Egw    Umc    ETupat 
;;-------------- ------ ------ ------ ------ ------ ------ ------ ------ ------ ------ ------ ------ ------
AQ               0.500000 0.150000 0.300000 10.000000 1.000000 15.000000 0.350000 0.350000 0.002000 0.000000 5.000000 0.250000       

[GROUNDWATER]
;;Subcatchment   Aquifer          Node             Esurf  A1     B1     A2     B2     A3     Dsw    Egwt   Ebot   Wgr    Umc   
;;-------------- ---------------- ---------------- ------ ------ ------ ------ ------ ------ ------ ------ ------ ------ ------
92.5             AQ               B                0.000000 1.000000 1.000000 1.000000 1.000000 0.000000 0.000000 0.000000 0.000000 0.000000 0.250000
95               AQ               C                0.000000 1.000000 1.000000 1.000000 1.000000 0.000000 0.000000 0.000000 0.000000 0.000000 0.250000
96.5             AQ               B                0.000000 1.000000 1.000000 1.000000 1.000000 0.000000 0.000000 0.000000 0.000000 0.000000 0.250000
98               AQ               G                0.000000 1.000000 1.000000 1.000000 1.000000 0.000000 0.000000 0.000000 0.000000 0.000000 0.250000

[JUNCTIONS]
;;Name           Elevation  MaxDepth   InitDepth  SurDepth   Aponded   
;;-------------- ---------- ---------- ---------- ---------- ----------
A                1.100000   20.000000  0.000000   0.000000   0.000000  
B                9.000000   20.000000  0.000000   0.000000   0.000000  
C                8.000000   6.000000   0.000000   0.000000   0.000000  
; New Junction
E                0.500000   4.000000   0.000000   0.000000   0.000000  
G                3.000000   5.000000   0.000000   0.000000   0.000000  

[OUTFALLS]
;;Name           Elevation  Type       Stage Data       Gated    Route To        
;;-------------- ---------- ---------- ---------------- -------- ----------------
OUTLET           0.000000   FREE                        NO                       

[CONDUITS]
;;Name           From Node        To Node          Length     Roughness  InOffset   OutOffset  InitFlow   MaxFlow   
;;-------------- ---------------- ---------------- ---------- ---------- ---------- ---------- ---------- ----------
A                A                E                220.000000 0.015000   0.000000   0.000000   0.000000   0.000000  
B                G                A                182.780407 0.015000   0.000000   0.000000   0.000000   0.000000  
C                B                C                505.000000 0.024000   0.000000   0.000000   0.000000   0.000000  
D                C                G                263.256269 0.024000   0.000000   0.000000   0.000000   0.000000  
; New Conduit
F                E                OUTLET           255.174254 0.015000   0.000000   0.000000   0.000000   0.000000  

[XSECTIONS]
;;Link           Shape        Geom1            Geom2      Geom3      Geom4      Barrels    Culvert   
;;-------------- ------------ ---------------- ---------- ---------- ---------- ---------- ----------
A                CIRCULAR     0.300000         0.000000   0.000000   0.000000   1          0         
B                CIRCULAR     0.300000         0.000000   0.000000   0.000000   1          0         
C                CIRCULAR     0.300000         0.000000   0.000000   0.000000   1          0         
D                CIRCULAR     0.300000         0.000000   0.000000   0.000000   1          0         
F                CIRCULAR     0.300000         0.000000   0.000000   0.000000   1          0         

[LOSSES]
;;Link           Kentry     Kexit      Kavg       Flap Gate  Seepage   
;;-------------- ---------- ---------- ---------- ---------- ----------
A                0.000000   0.000000   0.000000   NO         0.100000  
B                0.000000   0.000000   0.000000   NO         0.100000  
C                0.000000   0.000000   0.000000   NO         0.000000  
D                0.000000   0.000000   0.000000   NO         0.000000  
F                0.000000   0.000000   0.000000   NO         0.100000  

[CONTROLS]



[INFLOWS]
;;Node           Constituent      Time Series      Type     Mfactor  Sfactor  Baseline Pattern
;;-------------- ---------------- ---------------- -------- -------- -------- -------- --------
C                FLOW             ""               FLOW     1.0      1.000000 0.000000

[DWF]
;;Node           Constituent      Baseline   Patterns  
;;-------------- ---------------- ---------- ----------
A                FLOW             0.031270   "" ""
B                FLOW             0.031270   "" ""
C                FLOW             0.031270   "" ""
G                FLOW             0.031270   "" ""

[HYDROGRAPHS]
;;Hydrograph     Rain Gage/Month  Response R        T        K        Dmax     Drecov   Dinit   
;;-------------- ---------------- -------- -------- -------- -------- -------- -------- --------
2050RTK          GAGE500YEAR     
2050RTK          All              Short    0.020000 1.000000 1.000000 1.000000 1.000000 0.000000
2050RTK          All              Medium   0.020000 2.000000 2.000000 1.000000 1.000000 0.000000
2050RTK          All              Long     0.020000 3.000000 3.000000 1.000000 1.000000 0.000000
BASERTK          GAGE500YEAR     
BASERTK          All              Short    0.010000 1.000000 2.000000 1.000000 1.000000 0.000000
BASERTK          All              Medium   0.010000 2.000000 3.000000 1.000000 1.000000 0.000000
BASERTK          All              Long     0.010000 3.000000 4.000000 1.000000 1.000000 0.000000


[CURVES]
;;Name           Type       X-Value    Y-Value   
;;-------------- ---------- ---------- ----------
CUNETTE          SHAPE      0.000000   0.000000  
CUNETTE                     0.020000   0.140000  
CUNETTE                     0.040000   0.195950  
CUNETTE                     0.060000   0.237500  
CUNETTE                     0.080000   0.271300  
CUNETTE                     0.100000   0.300000  
CUNETTE                     0.120000   0.324950  
CUNETTE                     0.140000   0.347000  
CUNETTE                     0.160000   0.366600  
CUNETTE                     0.180000   0.384200  
CUNETTE                     0.200000   0.400000  
CUNETTE                     0.220000   0.414250  
CUNETTE                     0.240000   0.427100  
CUNETTE                     0.260000   0.438650  
CUNETTE                     0.280000   0.449000  
CUNETTE                     0.300000   0.458250  
CUNETTE                     0.320000   0.933000  
CUNETTE                     0.340000   0.947400  
CUNETTE                     0.360000   0.960000  
CUNETTE                     0.380000   0.970800  
CUNETTE                     0.400000   0.979800  
CUNETTE                     0.420000   0.987100  
CUNETTE                     0.440000   0.992800  
CUNETTE                     0.460000   0.996800  
CUNETTE                     0.480000   0.999200  
CUNETTE                     0.500000   1.000000  
CUNETTE                     0.520000   0.999200  
CUNETTE                     0.540000   0.996800  
CUNETTE                     0.560000   0.992800  
CUNETTE                     0.580000   0.987100  
CUNETTE                     0.600000   0.979800  
CUNETTE                     0.620000   0.970800  
CUNETTE                     0.640000   0.960000  
CUNETTE                     0.660000   0.947400  
CUNETTE                     0.680000   0.933000  
CUNETTE                     0.700000   0.916500  
CUNETTE                     0.720000   0.898000  
CUNETTE                     0.740000   0.877300  
CUNETTE                     0.760000   0.854200  
CUNETTE                     0.780000   0.828500  
CUNETTE                     0.800000   0.800000  
CUNETTE                     0.820000   0.768400  
CUNETTE                     0.840000   0.733200  
CUNETTE                     0.860000   0.694000  
CUNETTE                     0.880000   0.649900  
CUNETTE                     0.900000   0.600000  
CUNETTE                     0.920000   0.542600  
CUNETTE                     0.940000   0.475000  
CUNETTE                     0.960000   0.391900  
CUNETTE                     0.980000   0.280000  
CUNETTE                     1.000000   0.000000  

[TIMESERIES]
;;Name           Date       Time       Value     
;;-------------- ---------- ---------- ----------
RAINSERIES1      07/15/1977 06:30      0.000000  
RAINSERIES1                 06:35      0.840000  
RAINSERIES1                 06:40      0.040000  
RAINSERIES1                 06:45      0.020000  
RAINSERIES1                 06:50      0.000000  
RAINSERIES1                 07:05      0.000000  
RAINSERIES1                 07:10      0.680000  
RAINSERIES1                 07:15      0.880000  
RAINSERIES1      07/15/1977 07:20      2.020000  
RAINSERIES1                 07:25      2.130000  
RAINSERIES1                 07:30      0.630000  
RAINSERIES1                 07:35      2.330000  
RAINSERIES1                 07:40      0.310000  
RAINSERIES1      07/15/1977 07:45      0.200000  
RAINSERIES1                 07:50      0.000000  
RAINSERIES1                 08:00      0.000000  
RAINSERIES1                 08:05      0.020000  
RAINSERIES1      07/15/1977 08:10      0.000000  
RAINSERIES1                 08:25      0.000000  
RAINSERIES1                 08:30      0.220000  
RAINSERIES1      07/15/1977 08:35      2.390000  
RAINSERIES1                 08:40      0.400000  
RAINSERIES1                 08:45      0.860000  
RAINSERIES1                 08:50      2.790000  
RAINSERIES1                 08:55      1.380000  
RAINSERIES1      07/15/1977 09:00      1.080000  
RAINSERIES1                 09:05      0.640000  
RAINSERIES1                 09:10      0.020000  
RAINSERIES1                 09:15      0.150000  
RAINSERIES1                 09:20      0.000000  
;
CONSTANTRAIN                0:00       0.000000  
CONSTANTRAIN                1:00       0.000000  
CONSTANTRAIN                2:00       1.000000  
CONSTANTRAIN                3:00       0.000000  
;
10YEAR                      0:00       0.000000  
10YEAR                      1:00       0.000000  
10YEAR                      2:00       3.500000  
10YEAR                      3:00       0.000000  
;
25YEAR                      0:00       0.000000  
25YEAR                      1:00       0.000000  
25YEAR                      2:00       5.000000  
25YEAR                      3:00       0.000000  
;
50YEAR                      0:00       0.000000  
50YEAR                      1:00       0.000000  
50YEAR                      2:00       7.000000  
50YEAR                      3:00       0.000000  
;
100YEAR                     0:00       0.454545  
100YEAR                     1:00       0.909091  
100YEAR                     2:00       2.272727  
100YEAR                     3:00       0.909091  
100YEAR                     4:00       0.454545  
100YEAR                     5:00       0.000000  
;
500YEAR                     0:00       0.000000  
500YEAR                     1:00       0.000000  
500YEAR                     2:00       15.000000 
500YEAR                     3:00       0.000000  

[PATTERNS]
;;Name           Type       Multipliers
;;-------------- ---------- -----------
EVAPORATION      MONTHLY    5.000000 5.000000 2.000000 2.000000 3.000000 3.000000
EVAPORATION                 2.000000 2.000000 2.000000 1.000000 1.000000 1.000000
;
NORMALDAYS       DAILY      1.000000 1.000000 1.000000 0.000000 1.000000 1.000000 1.000000
;
ODDDATYPATTERN   HOURLY     0.000000 0.000000 0.000000 0.000000 0.000000 0.000000
ODDDATYPATTERN              0.000000 1.000000 1.000000 1.000000 1.000000 1.000000
ODDDATYPATTERN              0.000000 0.000000 0.000000 1.000000 1.000000 1.000000
ODDDATYPATTERN              1.000000 1.000000 0.000000 0.000000 0.000000 0.000000
;
ONEDAY           DAILY      0.000000 0.000000 0.000000 1.000000 0.000000 0.000000 0.000000

[REPORT]
;;Reporting Options
INPUT      YES
CONTROLS   NO
SUBCATCHMENTS ALL
NODES ALL
LINKS ALL

[TAGS]

[MAP]
DIMENSIONS -1216.394 -456.415 1511.407 1590.359
Units      None

[COORDINATES]
;;Node           X-Coord            Y-Coord           
;;-------------- ------------------ ------------------
A                95.350             315.596           
B                295.273            482.198           
C                448.088            412.110           
E                -27.300            226.899           
G                282.817            344.584           
OUTLET           -183.421           123.522           

[VERTICES]
;;Link           X-Coord            Y-Coord           
;;-------------- ------------------ ------------------

[Polygons]
;;Subcatchment   X-Coord            Y-Coord           
;;-------------- ------------------ ------------------
45               1387.416           1067.931          
45               1302.089           949.574           
45               1282.821           952.326           
45               1191.987           952.326           
45               1125.927           1007.376          
45               1208.502           1087.199          
45               1247.037           1087.199          
47.5             391.004            1497.324          
47.5             429.539            1445.027          
47.5             396.509            1434.017          
47.5             344.211            1398.234          
47.5             278.151            1398.234          
47.5             275.399            1414.749          
47.5             267.140            1480.809          
50               905.726            1489.067          
50               955.271            1406.492          
50               949.766            1400.987          
50               875.448            1365.204          
50               850.674            1359.699          
50               773.604            1434.017          
50               798.377            1483.562          
52.5             1103.907           1442.274          
52.5             1384.664           1423.007          
52.5             1379.159           1392.729          
52.5             1288.326           1343.184          
52.5             1128.680           1304.648          
52.5             1037.846           1348.689          
52.5             1037.846           1381.719          
55               1158.957           1224.825          
55               1381.911           1202.805          
55               1381.911           1172.528          
55               1117.670           1147.755          
57.5             1164.462           872.502           
57.5             1302.089           776.165           
57.5             1293.831           770.660           
57.5             1288.326           751.392           
57.5             1260.800           707.351           
57.5             1214.007           682.578           
57.5             1125.927           773.412           
60               1178.225           564.221           
60               1373.654           470.634           
60               1368.149           473.387           
60               1365.396           456.872           
60               1335.119           407.327           
60               1252.542           355.029           
60               1175.472           368.792           
60               1136.937           432.099           
60               1164.462           520.179           
62.5             1120.422           255.938           
62.5             1304.841           187.125           
62.5             1299.336           170.610           
62.5             1291.079           148.590           
62.5             1263.552           90.786            
62.5             1186.482           30.231            
62.5             1134.185           55.004            
62.5             1114.917           217.403           
65               1128.680           -112.901          
65               1288.326           -184.466          
65               1280.069           -178.961          
65               1302.089           -225.753          
65               1208.502           -297.320          
65               1057.113           -209.238          
65               1065.371           -156.941          
65               1070.877           -134.921          
67.6             759.842            -313.835          
67.6             938.756            -280.805          
67.6             927.746            -300.072          
67.6             894.716            -346.865          
67.6             765.347            -360.627          
67.6             754.337            -363.380          
67.6             754.337            -322.092          
70               440.549            -278.052          
70               545.145            -346.865          
70               542.393            -355.122          
70               503.858            -360.627          
70               399.261            -357.875          
70               388.251            -363.380          
70               404.766            -333.102          
70               413.024            -322.092          
70               424.034            -302.825          
72.5             184.565            -211.991          
72.5             333.201            -250.526          
72.5             346.964            -278.052          
72.5             333.201            -294.567          
72.5             302.924            -335.855          
72.5             162.545            -338.607          
72.5             118.505            -300.072          
72.5             110.247            -258.785          
75               -174.044           -136.226          
75               73.316             -153.285          
75               -31.883            -247.112          
75               -139.926           -281.231          
75               -191.103           -272.700          
75               -230.909           -218.679          
75               -236.595           -190.247          
75               -199.634           -150.441          
77.5             -670.726           225.843           
77.5             -273.557           -31.026           
77.5             -273.557           -39.557           
77.5             -282.087           -48.086           
77.5             -301.989           -85.047           
77.5             -765.434           -139.070          
77.5             -822.299           -107.793          
77.5             -949.832           194.831           
80               -821.014           636.152           
80               -671.607           241.923           
80               -677.294           233.393           
80               -813.768           222.020           
80               -961.616           202.118           
80               -990.048           295.944           
80               -921.810           443.792           
80               -871.109           533.575           
82.5             -975.833           807.723           
82.5             -819.455           645.660           
82.5             -825.141           639.974           
82.5             -990.385           314.107           
82.5             -1092.404          523.401           
82.5             -1058.286          722.427           
85               -57.648            1447.228          
85               -54.629            1072.143          
85               -467.957           1015.449          
85               -391.620           1234.917          
87.5             56.258             1427.546          
87.5             252.440            1291.071          
87.5             215.477            1188.716          
87.5             -23.354            1151.753          
87.5             -54.629            1194.402          
87.5             -23.354            1342.248          
90               -395.816           1248.423          
90               -532.290           793.508           
90               -546.506           784.977           
90               -597.684           784.977           
90               -646.019           779.291           
90               -793.866           816.254           
90               -890.535           1023.809          
90               -862.103           1089.203          
90               -597.684           1282.541          
92.5             673.137            1029.396          
92.5             772.229            1076.189          
92.5             813.516            1133.991          
92.5             694.898            1388.303          
92.5             509.141            1427.378          
92.5             365.378            1106.432          
92.5             414.401            949.574           
92.5             530.006            905.532           
95               914.207            -60.351           
95               1014.833           309.624           
95               633.449            261.693           